Circuit: * D:\GitHub\EE463-Hardware-Project-G3\555 Timer\sim\555_sim.asc

Direct Newton iteration for .op point succeeded.

Date: Sun Dec 26 18:09:06 2021
Total elapsed time: 0.150 seconds.

tnom = 27
temp = 27
method = modified trap
totiter = 5710
traniter = 5682
tranpoints = 1790
accept = 1614
rejected = 176
matrix size = 16
fillins = 2
solver = Normal
Matrix Compiler1: 644 bytes object code size  0.1/0.1/[0.1]
Matrix Compiler2: 990 bytes object code size  0.1/0.1/[0.1]

