Circuit: * C:\Users\yorga\Desktop\ee463 project\555\sim\Draft1.asc

Direct Newton iteration for .op point succeeded.
Changing Tseed to 2e-013
Heightened Def Con from 4.5298e-013 to 5.09404e-012

Date: Sat Dec 25 18:30:07 2021
Total elapsed time: 0.907 seconds.

tnom = 27
temp = 27
method = modified trap
totiter = 530409
traniter = 530402
tranpoints = 145549
accept = 115297
rejected = 30252
matrix size = 11
fillins = 3
solver = Normal
Matrix Compiler1: 704 bytes object code size  0.1/0.1/[0.1]
Matrix Compiler2: 889 bytes object code size  0.1/0.1/[0.1]

